pcf
* control data
             restart          estimation
         9        24         1         0         1         0
         1         1              single               point         1         0         0          noobsreref
   2.000000E+01  -3.000000E+00   3.000000E-01   1.000000E-02        -7       999          lamforgive        noderforgive
   1.000000E+01   1.000000E+01   1.000000E-03         0         0
   1.000000E-01         1   1.100000E+00               noaui          nosenreuse        noboundscale
         0   1.000000E-02         3         3   1.000000E-02         3   0.000000E+00         1  -1.000000E+00
         0         0         0         0             jcosave          verboserec          jcosaveitn          reisaveitn          parsaveitn        noparsaverun
* singular value decomposition
         1
  10000000    1.000000E-06
1
* parameter groups
 pargp                   relative              1.0000000000E-02       0.0  switch                2.0000000000E+00       parabolic             1.0000000000E-05      5.0000000000E-01       smaller              
* parameter data
 column_height          log                    factor                2.1000000000E+04      1.5000000000E+04      2.5000000000E+04       pargp                 1.0000000000E+00      0.0000000000E+00      1          
 diffusion_coef         log                    factor                5.0000000000E+03      1.0000000000E+03      1.0000000000E+04       pargp                 1.0000000000E+00      0.0000000000E+00      1          
 ellipse_major_axis     log                    factor                1.1500000000E+04      6.0000000000E+03      1.5000000000E+04       pargp                 1.0000000000E+00      0.0000000000E+00      1          
 ellipse_minor_axis     log                    factor                1.1500000000E+04      6.0000000000E+03      1.5000000000E+04       pargp                 1.0000000000E+00      0.0000000000E+00      1          
 tgsd_mean              none                   relative              -1.9900000000E+00     -5.0000000000E+00     5.0000000000E+00       pargp                 1.0000000000E+00      0.0000000000E+00      1          
 tgsd_sigma             fixed                  factor                1.0000000000E+00      1.1000000000E-10      1.1000000000E+10       pargp                 1.0000000000E+00      0.0000000000E+00      1          
 total_erupted_mass     log                    factor                8.2000000000E+10      1.0000000000E+10      1.0000000000E+13       pargp                 1.0000000000E+00      0.0000000000E+00      1          
 wind_direction         log                    factor                2.1700000000E+02      2.0500000000E+02      2.2500000000E+02       pargp                 1.0000000000E+00      0.0000000000E+00      1          
 wind_speed             log                    factor                5.0000000000E+00      1.0000000000E+00      8.0000000000E+00       pargp                 1.0000000000E+00      0.0000000000E+00      1          
* observation groups
obgnme               
* observation data
  obs_e:228433.0_n:8192778.0_x:14349_y:3770  7.0000000000E+00      1.0000000000E+00       obgnme               
  obs_e:229788.0_n:8193427.0_x:12994_y:3121  5.0000000000E+00      1.0000000000E+00       obgnme               
 obs_e:231595.0_n:8198480.0_x:11187_y:-1932  4.0000000000E+00      1.0000000000E+00       obgnme               
 obs_e:231694.0_n:8197619.0_x:11088_y:-1071  4.0000000000E+00      1.0000000000E+00       obgnme               
   obs_e:233194.0_n:8190440.0_x:9588_y:6108  1.0000000000E+01      1.0000000000E+00       obgnme               
   obs_e:233908.0_n:8189011.0_x:8874_y:7537  1.6000000000E+01      1.0000000000E+00       obgnme               
  obs_e:234195.0_n:8198194.0_x:8587_y:-1646  4.0000000000E+00      1.0000000000E+00       obgnme               
  obs_e:235327.0_n:8184950.0_x:7455_y:11598  2.0000000000E+01      1.0000000000E+00       obgnme               
   obs_e:235614.0_n:8190354.0_x:7168_y:6194  1.4000000000E+01      1.0000000000E+00       obgnme               
   obs_e:235682.0_n:8187652.0_x:7100_y:8896  2.5000000000E+01      1.0000000000E+00       obgnme               
   obs_e:236163.0_n:8190958.0_x:6619_y:5590  2.8000000000E+01      1.0000000000E+00       obgnme               
   obs_e:236538.0_n:8191417.0_x:6244_y:5131  2.0000000000E+01      1.0000000000E+00       obgnme               
  obs_e:237006.0_n:8202926.0_x:5776_y:-6378  8.0000000000E+00      1.0000000000E+00       obgnme               
  obs_e:237454.0_n:8185525.0_x:5328_y:11023  2.0000000000E+01      1.0000000000E+00       obgnme               
   obs_e:237496.0_n:8190167.0_x:5286_y:6381  3.0000000000E+01      1.0000000000E+00       obgnme               
   obs_e:238665.0_n:8188244.0_x:4117_y:8304  2.2000000000E+01      1.0000000000E+00       obgnme               
   obs_e:238954.0_n:8189678.0_x:3828_y:6870  2.9000000000E+01      1.0000000000E+00       obgnme               
  obs_e:239587.0_n:8185586.0_x:3195_y:10962  9.0000000000E+00      1.0000000000E+00       obgnme               
   obs_e:239760.0_n:8190677.0_x:3022_y:5871  3.4000000000E+01      1.0000000000E+00       obgnme               
   obs_e:240931.0_n:8186974.0_x:1851_y:9574  9.0000000000E+00      1.0000000000E+00       obgnme               
    obs_e:241878.0_n:8190407.0_x:904_y:6141  1.4000000000E+01      1.0000000000E+00       obgnme               
  obs_e:244750.0_n:8189532.0_x:-1968_y:7016  2.5000000000E+01      1.0000000000E+00       obgnme               
  obs_e:244814.0_n:8189459.0_x:-2032_y:7089  6.0000000000E+00      1.0000000000E+00       obgnme               
 obs_e:245486.0_n:8201343.0_x:-2704_y:-4795  4.0000000000E+00      1.0000000000E+00       obgnme               
* model command line
python main.py
* model input/output
./config.py.tpl ./config.py
./output_misti.txt.ins ./output_misti.txt
